OPT_V10/Two_days_MYC3/powerflow_results_t2.txt
Pandapower Network Debug Info
==================================================

BUS:
       vm_pu  va_degree      p_mw    q_mvar
0   0.992763   0.152594  0.000822  0.000989
1   0.988604   0.246983  0.001225  0.001821
2   0.984668   0.346394  0.001758  0.003238
3   0.988308   0.251753  0.002867  0.004778
4   0.999883   0.001071  0.008260  0.009428
5   0.999869   0.001148  0.011544  0.009881
6   0.999858   0.001233  0.012585  0.012850
7   0.999928   0.000764  0.000000  0.000000
8   0.999928   0.000771  0.000000  0.000000
9   1.000000   0.000000 -0.039218 -0.048093
10  1.000000   0.000007  0.000000  0.000000
--------------------------------------------------

LINE:
   p_from_mw  q_from_mvar   p_to_mw  q_to_mvar         pl_mw       ql_mvar  i_from_ka   i_to_ka      i_ka  vm_from_pu  va_from_degree  vm_to_pu  va_to_degree  loading_percent
0   0.039208     0.044093 -0.039204  -0.044090  3.405282e-06  2.655155e-06   0.002271  0.002271  0.002271    1.000000        0.000007  0.999928      0.000764         0.987411
1   0.032390     0.032161 -0.032389  -0.032160  1.611359e-06  1.256403e-06   0.001757  0.001757  0.001757    0.999928        0.000764  0.999883      0.001071         0.763919
2   0.006804     0.010929 -0.006726  -0.010869  7.752827e-05  6.045007e-05   0.018583  0.018583  0.018583    0.999928        0.000771  0.992763      0.152594         8.079572
3  -0.024129    -0.022731  0.024129   0.022732  3.801265e-07  2.963909e-07   0.001276  0.001276  0.001276    0.999869        0.001148  0.999883      0.001071         0.554827
4  -0.012585    -0.012850  0.012585   0.012850  1.582615e-07  1.233991e-07   0.000692  0.000692  0.000692    0.999858        0.001233  0.999869      0.001148         0.301040
5  -0.002996    -0.005069  0.003017   0.005085  2.098427e-05  1.636178e-05   0.008596  0.008596  0.008596    0.988604        0.246983  0.992763      0.152594         3.737449
6  -0.002867    -0.004778  0.002888   0.004795  2.122459e-05  1.654916e-05   0.008138  0.008138  0.008138    0.988308        0.251753  0.992763      0.152594         3.538226
7  -0.001758    -0.003238  0.001770   0.003247  1.266228e-05  9.872991e-06   0.005400  0.005400  0.005400    0.984668        0.346394  0.988604      0.246983         2.347906
--------------------------------------------------

TRAFO:
    p_hv_mw  q_hv_mvar   p_lv_mw  q_lv_mvar    pl_mw  ql_mvar   i_hv_ka   i_lv_ka  vm_hv_pu  va_hv_degree  vm_lv_pu  va_lv_degree  loading_percent
0  0.006814   0.011929 -0.006804  -0.010929  0.00001    0.001  0.000529  0.018583  0.999928      0.000764  0.999928      0.000771         0.137386
1  0.039218   0.048093 -0.039208  -0.044093  0.00001    0.004  0.000512  0.002271  1.000000      0.000000  1.000000      0.000007         0.155140
--------------------------------------------------
